@<TRIPOS>MOLECULE
name
   14    13    0     0     0
SMALL
NO_CHARGES
****
description
@<TRIPOS>ATOM
1      C               0.6840   0.0720  -0.4840 C.3        1 SER    0.0000
2      C              -0.6400   0.7880  -0.2440 C.3        1 SER    0.0824
3      O              -1.7120  -0.1440  -0.3560 O.3        1 SER   -0.3924
4      N               0.8600  -1.0080   0.5280 N.4        1 SER    0.0000
5      C               1.8200   1.0600  -0.3640 C.2        1 SER    0.0000
6      O               2.5600   1.2560  -1.3160 O.co2      1 SER    0.0000
7      O               2.0040   1.6880   0.7200 O.co2      1 SER    0.0000
8      H               0.6880  -0.3600  -1.4800 H          1 SER    0.0000
9      H              -0.7640   1.5760  -0.9800 H          1 SER    0.0583
10     H              -0.6400   1.2240   0.7520 H          1 SER    0.0583
11     H               0.0840  -1.6880   0.4480 H          1 SER    0.0000
12     H               1.7600  -1.4960   0.3640 H          1 SER    0.0000
13     H               0.8600  -0.5960   1.4760 H          1 SER    0.0000
14     H              -2.5600   0.3000  -0.2040 H          1 SER    0.2095
@<TRIPOS>BOND
1     1     2     1
2     1     4     1
3     1     5     1
4     1     8     1
5     2     3     1
6     2     9     1
7     2     10    1
8     3     14    1
9     4     11    1
10    4     12    1
11    4     13    1
12    5     6     2
13    5     7     1
